   96
 
Au      0.357660   -0.389550   -2.775970
Au     -2.757240    3.405300   -3.713160
Au     -2.604420    3.894390   -0.892720
Au     -3.589360    0.723710   -3.955920
Au      2.029270    2.352220   -2.240240
Au      1.532180   -2.464230    0.237690
Au      1.787560    2.221770    0.515120
Au     -1.772510   -1.189690   -4.945120
Au     -2.020310   -0.025970    2.091290
Au     -1.210840    2.627210    1.141120
Au     -0.172980   -3.454610   -1.697280
Au      0.208530    4.059930   -0.826380
Au     -4.979580   -0.274880   -1.605840
Au      1.617200    2.155190   -4.986870
Au      0.258940   -1.594310    2.626870
Au      0.000000    0.000000    0.000000
Au     -4.067840   -2.000230   -3.536170
Au      2.936940   -0.000090   -1.007330
Au      0.814970   -0.396610   -5.662990
Au     -1.957500   -3.766880   -3.798820
Au     -3.569200    1.374510    0.278560
Au     -1.333960   -2.741760    0.752540
Au     -3.851290   -1.473660    0.611690
Au     -2.121680   -0.862020   -1.654580
Au     -1.132220    1.554890   -5.049510
Au     -0.050060    3.824260   -3.569400
Au      0.436670    1.214670    2.774740
Au      2.416300   -2.401710   -2.386590
Au      0.560860   -2.816750   -4.394900
Au      2.551760   -0.266250    1.665190
Au     -4.714750    2.435150   -2.025070
Au      2.936880   -0.000050   -3.774990
Au     -1.182280    1.720310   -1.902030
Au     -3.101300   -3.447900   -1.258940
C      16.313840    7.563280   -0.809830
C       9.912390    7.491810   -1.945450
C      15.092970    7.508750   -0.103960
C      16.716390    6.459520   -1.591960
C       9.531900    6.532690   -0.983980
C      11.117380    7.321090   -2.659410
C      14.269750    6.370310   -0.195320
C      15.901620    5.313740   -1.669280
C      10.347750    5.411170   -0.740270
C      11.938860    6.205310   -2.409040
C      13.798370   -0.780420   -1.163760
C      12.419970   -0.780280   -1.164460
C      16.939740    1.410420   -0.629370
C      16.706680   -0.987120   -0.939510
C       9.488480   -0.958460   -1.101970
C       9.290160    1.417500   -0.641450
C      18.283550    1.217790   -0.402310
C      18.056460   -1.128960   -0.721370
C       8.125830   -1.079290   -0.964170
C       7.935040    1.244370   -0.488560
C      20.297910   -0.212040   -0.292800
C       5.883160   -0.101370   -0.682880
C      16.028090    0.303260   -0.887930
C      10.188500    0.310410   -0.935110
C      14.659610    5.258180   -0.985240
C      11.567370    5.235330   -1.442530
C      14.608080    0.412610   -1.039450
C      11.612000    0.412450   -1.039240
C      13.824370    4.020300   -1.080300
C      12.400200    4.014960   -1.198180
C      13.842920    1.670930   -1.039540
C      12.378560    1.670680   -1.048250
N      14.501310    2.855040   -1.032120
N      11.720970    2.851710   -1.137490
N      18.867720   -0.046580   -0.406490
N       7.322250   -0.002910   -0.606510
S      21.236840   -0.436050   -1.883640
S       5.146940   -0.000070   -2.391160
H      16.951400    8.464960   -0.744470
H       9.269520    8.370670   -2.139420
H      14.779480    8.364420    0.523400
H      17.671760    6.493240   -2.148620
H       8.589680    6.661010   -0.419430
H      11.418460    8.059980   -3.426080
H      13.311820    6.338600    0.354420
H      16.210050    4.442070   -2.276060
H      10.051080    4.659480    0.015790
H      12.878100    6.075850   -2.976920
H      14.288420   -1.766310   -1.220970
H      11.924700   -1.763140   -1.227930
H      16.533990    2.434910   -0.599750
H      16.156260   -1.912250   -1.171410
H      10.028750   -1.878880   -1.377940
H       9.713040    2.429590   -0.548730
H      18.964930    2.058640   -0.177760
H      18.562740   -2.109300   -0.779860
H       7.598570   -2.034770   -1.134770
H       7.259720    2.085030   -0.246450
H      20.527330   -1.139310    0.277490
H      20.717530    0.652590    0.263140
H       5.432160    0.683170   -0.038490
H       5.550520   -1.094590   -0.308570
